{
  "completed_at": "20170329T223057Z",
  "completed_status": "Success",
  "created_at": "2017-03-29 22:30:28 +0000",
  "current_step": 6,
  "description": "",
  "eplusout_err": "Program Version,EnergyPlus, Version 8.7.0-ae053cab77, YMD=2017.03.29 22:30,IDD_Version 8.7.0\n   ** Warning ** Timestep: Requested number (1) is less than the suggested minimum of 4.\n   **   ~~~   ** Please see entry for Timestep in Input/Output Reference for discussion of considerations.\n   ************* Beginning Zone Sizing Calculations\n   ** Warning ** ProcessScheduleInput: Schedule:Day:Interval=\"ALL WEEKDAYS\", , One or more values are not integer as required by Schedule Type Limits Name=HVAC OPERATION SCHEDULE TYPE LIMITS\n   ** Warning ** ProcessScheduleInput: DecodeHHMMField, Invalid \"until\" field value is not a multiple of the minutes for each timestep: 12:45\n   **   ~~~   ** Other errors may result. Occurred in Day Schedule=ALL WEEKDAYS 1\n   ** Warning ** ProcessScheduleInput: DecodeHHMMField, Invalid \"until\" field value is not a multiple of the minutes for each timestep: 06:45\n   **   ~~~   ** Other errors may result. Occurred in Day Schedule=ALL WEEKDAYS 2\n   ** Warning ** ProcessScheduleInput: DecodeHHMMField, Invalid \"until\" field value is not a multiple of the minutes for each timestep: 06:15\n   **   ~~~   ** Other errors may result. Occurred in Day Schedule=ALL WEEKDAYS 3\n   ** Warning ** ProcessScheduleInput: DecodeHHMMField, Invalid \"until\" field value is not a multiple of the minutes for each timestep: 06:15\n   **   ~~~   ** Other errors may result. Occurred in Day Schedule=ALL WEEKDAYS 4\n   ** Warning ** ProcessScheduleInput: Schedule:Day:Interval=\"ALL WEEKENDS\", , One or more values are not integer as required by Schedule Type Limits Name=HVAC OPERATION SCHEDULE TYPE LIMITS\n   ** Warning ** ProcessScheduleInput: Schedule:Day:Interval=\"ALL WEEKENDS 7\", , One or more values are not integer as required by Schedule Type Limits Name=HVAC OPERATION SCHEDULE TYPE LIMITS\n   ** Warning ** ProcessScheduleInput: Schedule:Day:Interval=\"BUILDING HVAC OPERATION DEFAULT WEEKDAY SCHEDULE\", , One or more values are not integer as required by Schedule Type Limits Name=HVAC OPERATION SCHEDULE TYPE LIMITS\n   ** Warning ** ProcessScheduleInput: DecodeHHMMField, Invalid \"until\" field value is not a multiple of the minutes for each timestep: 06:15\n   **   ~~~   ** Other errors may result. Occurred in Day Schedule=BUILDING PLUG LOAD DEFAULT WEEKDAY SCHEDULE\n   ** Warning ** ProcessScheduleInput: DecodeHHMMField, Invalid \"until\" field value is not a multiple of the minutes for each timestep: 06:45\n   **   ~~~   ** Other errors may result. Occurred in Day Schedule=BUILDING WATER USE DEFAULT WEEKDAY SCHEDULE\n   ** Warning ** ProcessScheduleInput: Schedule:Day:Interval=\"SIMUWATT DEFAULT SUMMER CLG SCH - 68F\", Blank Schedule Type Limits Name input -- will not be validated.\n   ** Warning ** ProcessScheduleInput: Schedule:Day:Interval=\"SIMUWATT DEFAULT SUMMER HTG SCH - 68F\", Blank Schedule Type Limits Name input -- will not be validated.\n   ** Warning ** ProcessScheduleInput: Schedule:Day:Interval=\"SIMUWATT DEFAULT WINTER CLG SCH - 68F\", Blank Schedule Type Limits Name input -- will not be validated.\n   ** Warning ** ProcessScheduleInput: Schedule:Day:Interval=\"SIMUWATT DEFAULT WINTER HTG SCH - 68F\", Blank Schedule Type Limits Name input -- will not be validated.\n   ** Warning ** ProcessScheduleInput: DecodeHHMMField, Invalid \"until\" field value is not a multiple of the minutes for each timestep: 16:15\n   **   ~~~   ** Other errors may result. Occurred in Day Schedule=SPACE OCCUPANCY DEFAULT WEEKDAY SCHEDULE\n   ** Warning ** ProcessScheduleInput: Schedule:Constant=\"ALWAYS OFF DISCRETE\", Blank Schedule Type Limits Name input -- will not be validated.\n   ** Warning ** ProcessScheduleInput: Schedule:Constant=\"ALWAYS ON CONTINUOUS\", Blank Schedule Type Limits Name input -- will not be validated.\n   ** Warning ** GetHTSurfaceData: Surfaces with interface to Ground found but no \"Ground Temperatures\" were input.\n   **   ~~~   ** Found first in surface=ENTRY WAY  FLOOR\n   **   ~~~   ** Defaults, constant throughout the year of (18.0) will be used.\n   ** Warning ** GetSurfaceData: InterZone Surface Tilts do not match as expected.\n   **   ~~~   **   Tilt=0.0 in Surface=LEVEL 0 ENTRY WAY  CEILING PLENUM DROPPEDCEILING, Zone=LEVEL 0 CEILING PLENUM ZONE\n   **   ~~~   **   Tilt=0.0 in Surface=ENTRY WAY  DROPPEDCEILING, Zone=SINGLE ZONE\n   ** Warning ** GetSurfaceData: InterZone Surface Classes do not match as expected.\n   **   ~~~   ** Surface=\"LEVEL 0 ENTRY WAY  CEILING PLENUM DROPPEDCEILING\", surface class=Roof\n   **   ~~~   ** Adjacent Surface=\"ENTRY WAY  DROPPEDCEILING\", surface class=Roof\n   **   ~~~   ** Other errors/warnings may follow about these surfaces.\n   ** Warning ** GetSurfaceData: InterZone Surface Tilts do not match as expected.\n   **   ~~~   **   Tilt=0.0 in Surface=LEVEL 0 OPEN AREA 1 CEILING PLENUM DROPPEDCEILING, Zone=LEVEL 0 CEILING PLENUM ZONE\n   **   ~~~   **   Tilt=0.0 in Surface=OPEN AREA 1 DROPPEDCEILING, Zone=SINGLE ZONE\n   ** Warning ** GetSurfaceData: InterZone Surface Classes do not match as expected.\n   **   ~~~   ** Surface=\"LEVEL 0 OPEN AREA 1 CEILING PLENUM DROPPEDCEILING\", surface class=Roof\n   **   ~~~   ** Adjacent Surface=\"OPEN AREA 1 DROPPEDCEILING\", surface class=Roof\n   **   ~~~   ** Other errors/warnings may follow about these surfaces.\n   ** Warning ** GetSurfaceData: InterZone Surface Tilts do not match as expected.\n   **   ~~~   **   Tilt=0.0 in Surface=LEVEL 0 SMALL OFFICE 1 CEILING PLENUM DROPPEDCEILING, Zone=LEVEL 0 CEILING PLENUM ZONE\n   **   ~~~   **   Tilt=0.0 in Surface=SMALL OFFICE 1 DROPPEDCEILING, Zone=SINGLE ZONE\n   ** Warning ** GetSurfaceData: InterZone Surface Classes do not match as expected.\n   **   ~~~   ** Surface=\"LEVEL 0 SMALL OFFICE 1 CEILING PLENUM DROPPEDCEILING\", surface class=Roof\n   **   ~~~   ** Adjacent Surface=\"SMALL OFFICE 1 DROPPEDCEILING\", surface class=Roof\n   **   ~~~   ** Other errors/warnings may follow about these surfaces.\n   ** Warning ** GetSurfaceData: InterZone Surface Tilts do not match as expected.\n   **   ~~~   **   Tilt=0.0 in Surface=LEVEL 0 UTILITY 1 CEILING PLENUM DROPPEDCEILING, Zone=LEVEL 0 CEILING PLENUM ZONE\n   **   ~~~   **   Tilt=0.0 in Surface=UTILITY 1 DROPPEDCEILING, Zone=SINGLE ZONE\n   ** Warning ** GetSurfaceData: InterZone Surface Classes do not match as expected.\n   **   ~~~   ** Surface=\"LEVEL 0 UTILITY 1 CEILING PLENUM DROPPEDCEILING\", surface class=Roof\n   **   ~~~   ** Adjacent Surface=\"UTILITY 1 DROPPEDCEILING\", surface class=Roof\n   **   ~~~   ** Other errors/warnings may follow about these surfaces.\n   ** Warning ** No floor exists in Zone=\"LEVEL 0 CEILING PLENUM ZONE\", zone floor area is zero. All values for this zone that are entered per floor area will be zero.\n   ** Warning ** CheckUsedConstructions: There are 1 nominally unused constructions in input.\n   **   ~~~   ** For explicit details on each unused construction, use Output:Diagnostics,DisplayExtraWarnings;\n   ************* Beginning System Sizing Calculations\n   ************* Beginning Plant Sizing Calculations\n   ** Warning ** GetDXCoils: Coil:Cooling:DX:SingleSpeed=\"COIL COOLING DX SINGLE SPEED 1\":\n   **   ~~~   ** ...At least one of the four input parameters for the latent capacity degradation model\n   **   ~~~   ** ...is set to zero. Therefore, the latent degradation model will not be used for this simulation.\n   ** Warning ** Output:Meter: invalid Name=\"DISTRICTCOOLING:FACILITY\" - not found.\n   ** Warning ** Output:Meter: invalid Name=\"DISTRICTHEATING:FACILITY\" - not found.\n   ** Warning ** Output:Meter:MeterFileOnly requested for \"Electricity:Facility\" (TimeStep), already on \"Output:Meter\". Will report to both eplusout.eso and eplusout.mtr\n   ************* Testing Individual Branch Integrity\n   ************* All Branches passed integrity testing\n   ************* Testing Individual Supply Air Path Integrity\n   ************* All Supply Air Paths passed integrity testing\n   ************* Testing Individual Return Air Path Integrity\n   ************* All Return Air Paths passed integrity testing\n   ************* No node connection errors were found.\n   ************* Beginning Simulation\n   ** Warning ** CalcDoe2DXCoil: Coil:Cooling:DX:SingleSpeed \"COIL COOLING DX SINGLE SPEED 1\" - Full load outlet air dry-bulb temperature < 2C. This indicates the possibility of coil frost/freeze. Outlet temperature = 0.34 C.\n   **   ~~~   **  ...Occurrence info = RUN PERIOD 1, 01/04 11:15 - 11:30\n   **   ~~~   ** ... Possible reasons for low outlet air dry-bulb temperatures are: This DX coil\n   **   ~~~   **    1) may have a low inlet air dry-bulb temperature. Inlet air temperature = 18.121 C.\n   **   ~~~   **    2) may have a low air flow rate per watt of cooling capacity. Check inputs.\n   **   ~~~   **    3) is used as part of a HX assisted cooling coil which uses a high sensible effectiveness. Check inputs.\n   ************* Simulation Error Summary *************\n   ************* There are 5 unused schedules in input.\n   ************* There are 6 unused week schedules in input.\n   ************* There are 38 unused day schedules in input.\n   ************* Use Output:Diagnostics,DisplayUnusedSchedules; to see them.\n   *************\n   ************* ===== Recurring Error Summary =====\n   ************* The following recurring error messages occurred.\n   *************\n   *************  ** Warning ** CalcDoe2DXCoil: Coil:Cooling:DX:SingleSpeed=\"COIL COOLING DX SINGLE SPEED 1\" - Full load outlet temperature indicates a possibility of frost/freeze error continues. Outlet air temperature statistics follow:\n   *************  **   ~~~   **   This error occurred 371 total times;\n   *************  **   ~~~   **   during Warmup 0 times;\n   *************  **   ~~~   **   during Sizing 0 times.\n   *************  **   ~~~   **   Max=1.996323  Min=0.303238\n   *************\n   *************\n   ************* ===== Final Error Summary =====\n   ************* The following error categories occurred.  Consider correcting or noting.\n   ************* InterZone Surface Tilts -- mismatch\n   ************* Nominally Unused Constructions\n   ************* ..The nominally unused constructions warning is provided to alert you to potential conditions that can cause\n   ************* ..extra time during simulation. Each construction is calculated by the algorithm indicated in the HeatBalanceAlgorithm\n   ************* ..object. You may remove the constructions indicated (when you use the DisplayExtraWarnings option).\n   *************\n   ************* EnergyPlus Warmup Error Summary. During Warmup: 0 Warning; 0 Severe Errors.\n   ************* EnergyPlus Sizing Error Summary. During Sizing: 28 Warning; 0 Severe Errors.\n   ************* EnergyPlus Completed Successfully-- 404 Warning; 0 Severe Errors; Elapsed Time=00hr 00min  6.15sec\n",
  "file_format_version": "0.0.1",
  "file_paths": [
    "../weather",
    "../seeds",
    "../seed"
  ],
  "hash": "34C1C420",
  "measure_paths": [
    "../measures"
  ],
  "name": "diag Autogenerated 3",
  "osa_id": "3dd2cf2e-e053-4fae-ad69-be0126fa4fe8",
  "osd_id": "5ff58d65-d1b8-4bff-a062-f313c06030f2",
  "run_directory": "./run",
  "seed_file": "SEB4_baseboard.osm",
  "started_at": "20170329T223031Z",
  "steps": [
    {
      "arguments": {
        "consumption_unit": "kWh",
        "data_key_name": "tot_kwh",
        "end_date": "2013-12-31",
        "fuel_type": "Electricity",
        "json": "../../../lib/calibration_data/electric.json",
        "remove_existing_data": true,
        "set_runperiod": true,
        "start_date": "2013-01-1",
        "variable_name": "Electric Bill"
      },
      "description": "Reads in json format and adds utility data",
      "measure_dir_name": "AddMonthlyJSONUtilityData",
      "name": "add_monthly_json_utility_data",
      "result": {
        "completed_at": "20170329T223033Z",
        "measure_class_name": "AddMonthlyJSONUtilityData",
        "measure_display_name": "AddMonthlyJSONUtilityData",
        "measure_name": "add_monthly_json_utility_data",
        "measure_taxonomy": "Economics.Life Cycle Cost Analysis",
        "measure_type": "ModelMeasure",
        "measure_uid": "6da969e0-4256-49bf-9607-26504cc3d423",
        "measure_version_id": "cb687d6c-6ee1-4488-800b-8bdce34214ce",
        "measure_version_modified": "20170320T192149Z",
        "measure_xml_checksum": "9064277D",
        "started_at": "20170329T223033Z",
        "stderr": "",
        "stdout": "[OpenStudio.Measure] <0> OSArgumentVector is deprecated, use OpenStudio::Measure::OSArgumentVector instead.\n[utilities.time.Date] <1> Comparing Dates with improper base years\n[utilities.time.Date] <1> Comparing Dates with improper base years\n[utilities.time.Date] <1> Comparing Dates with improper base years\n[utilities.time.Date] <1> Comparing Dates with improper base years\n[utilities.time.Date] <1> Comparing Dates with improper base years\n[utilities.time.Date] <1> Comparing Dates with improper base years\n[utilities.time.Date] <1> Comparing Dates with improper base years\n[utilities.time.Date] <1> Comparing Dates with improper base years\n[utilities.time.Date] <1> Comparing Dates with improper base years\n[utilities.time.Date] <1> Comparing Dates with improper base years\n[utilities.time.Date] <1> Comparing Dates with improper base years\n[utilities.time.Date] <1> Comparing Dates with improper base years\n",
        "step_errors": [],
        "step_files": [],
        "step_final_condition": "Utility bill data has been added to the model.",
        "step_info": [
          "RunPeriod start date set to 2013-Jan-01",
          "RunPeriod end date set to 2013-Dec-31",
          "json is ../../../lib/calibration_data/electric.json",
          "json_path is /mnt/openstudio/analysis_3dd2cf2e-e053-4fae-ad69-be0126fa4fe8/lib/calibration_data/electric.json",
          "fuel_type is Electricity",
          "skipping period 2012-Jan-01 to 2012-Jan-30",
          "skipping period 2012-Feb-01 to 2012-Feb-28",
          "skipping period 2012-Mar-01 to 2012-Mar-31",
          "skipping period 2012-Apr-01 to 2012-Apr-30",
          "skipping period 2012-May-01 to 2012-May-31",
          "skipping period 2012-Jun-01 to 2012-Jun-30",
          "skipping period 2012-Jul-01 to 2012-Jul-31",
          "skipping period 2012-Aug-01 to 2012-Aug-31",
          "skipping period 2012-Sep-01 to 2012-Sep-30",
          "skipping period 2012-Oct-01 to 2012-Oct-31",
          "skipping period 2012-Nov-01 to 2012-Nov-30",
          "skipping period 2012-Dec-01 to 2012-Dec-31",
          "period {\"from\"=>\"2013-01-01T00:00:00Z\", \"to\"=>\"2013-01-30T23:59:59Z\", \"tot_kwh\"=>1562}",
          "period_start_date: 2013-Jan-01, period_end_date: 2013-Jan-30, tot_kwh: 1562.0",
          "period {\"from\"=>\"2013-02-01T00:00:00Z\", \"to\"=>\"2013-02-28T23:59:59Z\", \"tot_kwh\"=>1395}",
          "period_start_date: 2013-Feb-01, period_end_date: 2013-Feb-28, tot_kwh: 1395.0",
          "period {\"from\"=>\"2013-03-01T00:00:00Z\", \"to\"=>\"2013-03-31T23:59:59Z\", \"tot_kwh\"=>1279}",
          "period_start_date: 2013-Mar-01, period_end_date: 2013-Mar-31, tot_kwh: 1279.0",
          "period {\"from\"=>\"2013-04-01T00:00:00Z\", \"to\"=>\"2013-04-30T23:59:59Z\", \"tot_kwh\"=>1347}",
          "period_start_date: 2013-Apr-01, period_end_date: 2013-Apr-30, tot_kwh: 1347.0",
          "period {\"from\"=>\"2013-05-01T00:00:00Z\", \"to\"=>\"2013-05-31T23:59:59Z\", \"tot_kwh\"=>1363}",
          "period_start_date: 2013-May-01, period_end_date: 2013-May-31, tot_kwh: 1363.0",
          "period {\"from\"=>\"2013-06-01T00:00:00Z\", \"to\"=>\"2013-06-30T23:59:59Z\", \"tot_kwh\"=>1691}",
          "period_start_date: 2013-Jun-01, period_end_date: 2013-Jun-30, tot_kwh: 1691.0",
          "period {\"from\"=>\"2013-07-01T00:00:00Z\", \"to\"=>\"2013-07-31T23:59:59Z\", \"tot_kwh\"=>1852}",
          "period_start_date: 2013-Jul-01, period_end_date: 2013-Jul-31, tot_kwh: 1852.0",
          "period {\"from\"=>\"2013-08-01T00:00:00Z\", \"to\"=>\"2013-08-31T23:59:59Z\", \"tot_kwh\"=>1983}",
          "period_start_date: 2013-Aug-01, period_end_date: 2013-Aug-31, tot_kwh: 1983.0",
          "period {\"from\"=>\"2013-09-01T00:00:00Z\", \"to\"=>\"2013-09-30T23:59:59Z\", \"tot_kwh\"=>1650}",
          "period_start_date: 2013-Sep-01, period_end_date: 2013-Sep-30, tot_kwh: 1650.0",
          "period {\"from\"=>\"2013-10-01T00:00:00Z\", \"to\"=>\"2013-10-31T23:59:59Z\", \"tot_kwh\"=>1385}",
          "period_start_date: 2013-Oct-01, period_end_date: 2013-Oct-31, tot_kwh: 1385.0",
          "period {\"from\"=>\"2013-11-01T00:00:00Z\", \"to\"=>\"2013-11-30T23:59:59Z\", \"tot_kwh\"=>1347}",
          "period_start_date: 2013-Nov-01, period_end_date: 2013-Nov-30, tot_kwh: 1347.0",
          "period {\"from\"=>\"2013-12-01T00:00:00Z\", \"to\"=>\"2013-12-31T23:59:59Z\", \"tot_kwh\"=>1524}",
          "period_start_date: 2013-Dec-01, period_end_date: 2013-Dec-31, tot_kwh: 1524.0"
        ],
        "step_result": "Success",
        "step_values": [
          {
            "name": "json",
            "value": "../../../lib/calibration_data/electric.json"
          },
          {
            "name": "variable_name",
            "value": "Electric Bill"
          },
          {
            "name": "fuel_type",
            "value": "Electricity"
          },
          {
            "name": "consumption_unit",
            "value": "kWh"
          },
          {
            "name": "data_key_name",
            "value": "tot_kwh"
          },
          {
            "name": "start_date",
            "value": "2013-01-1"
          },
          {
            "name": "end_date",
            "value": "2013-12-31"
          },
          {
            "name": "remove_existing_data",
            "value": true
          },
          {
            "name": "set_runperiod",
            "value": true
          }
        ],
        "step_warnings": []
      }
    },
    {
      "arguments": {
        "demo_cost_initial_const": false,
        "demolition_cost": 0,
        "elecequip_power_reduction_percent": 0,
        "expected_life": 15,
        "material_and_installation_cost": 0,
        "om_cost": 0,
        "om_frequency": 1,
        "run_measure": 1,
        "space_type": "*Entire Building*",
        "years_until_costs_start": 0
      },
      "description": "Reduce electric equipment loads. This will affect equipment that have a, power, power per area (LPD), or power per person value. This can be applied to the entire building or a specific space type. A positive percentage represents an increase electric equipment power, while a negative percentage can be used for an increase in electric equipment power.",
      "measure_dir_name": "ReduceElectricEquipmentLoadsByPercentageDiag",
      "name": "reduce_electric_equipment_loads_by_percentage_diag",
      "result": {
        "completed_at": "20170329T223034Z",
        "measure_class_name": "ReduceElectricEquipmentLoadsByPercentageDiag",
        "measure_display_name": "Reduce Electric Equipment Loads by Percentage",
        "measure_name": "reduce_electric_equipment_loads_by_percentage_diag",
        "measure_taxonomy": "Equipment.Electric Equipment",
        "measure_type": "ModelMeasure",
        "measure_uid": "428bba5b-84c3-4c4c-a94d-88a5f59f51ee",
        "measure_version_id": "d79b6424-5611-4f01-a3f4-2468f95bcb50",
        "measure_version_modified": "20170321T143325Z",
        "measure_xml_checksum": "F9A5B8F0",
        "started_at": "20170329T223034Z",
        "stderr": "",
        "stdout": "[OpenStudio.Measure] <0> OSArgumentVector is deprecated, use OpenStudio::Measure::OSArgumentVector instead.\n",
        "step_errors": [],
        "step_files": [],
        "step_final_condition": "The model's final building electric equipment power was  2,485 watts, an electric equipment power density of 2.81 w/ft^2. Initial capital costs associated with the improvements are $0.",
        "step_info": [
          "No electric electric equipment power adjustment requested, but some life cycle costs may still be affected."
        ],
        "step_initial_condition": "The model's initial building electric equipment power was  2,485 watts, an electric equipment power density of 2.81 w/ft^2.",
        "step_result": "Success",
        "step_values": [
          {
            "name": "run_measure",
            "value": 1
          },
          {
            "name": "space_type",
            "value": "{ef611f95-658d-4609-9b31-7cfea756bfd5}"
          },
          {
            "name": "elecequip_power_reduction_percent",
            "value": 0
          },
          {
            "name": "material_and_installation_cost",
            "value": 0
          },
          {
            "name": "demolition_cost",
            "value": 0
          },
          {
            "name": "years_until_costs_start",
            "value": 0
          },
          {
            "name": "demo_cost_initial_const",
            "value": false
          },
          {
            "name": "expected_life",
            "value": 15
          },
          {
            "name": "om_cost",
            "value": 0
          },
          {
            "name": "om_frequency",
            "value": 1
          }
        ],
        "step_warnings": []
      }
    },
    {
      "arguments": {
        "demo_cost_initial_const": false,
        "demolition_cost": 0,
        "eff": 0.8,
        "expected_life": 15,
        "material_cost": 0,
        "object": "*All Air Loops*",
        "om_cost": 0,
        "om_frequency": 1,
        "remove_costs": false,
        "run_measure": 0,
        "years_until_costs_start": 0
      },
      "description": "This measure will find Coil Heating Gas units in the model and will alter the burner efficiency to a specified value. It can be run on a single or all air loops in the model.",
      "measure_dir_name": "SetGasBurnerEfficiencyDiag",
      "name": "set_gas_burner_efficiency_diag",
      "result": {
        "completed_at": "20170329T223034Z",
        "measure_class_name": "SetGasBurnerEfficiencyDiag",
        "measure_display_name": "Set Gas Burner Efficiency",
        "measure_name": "set_gas_burner_efficiency_diag",
        "measure_taxonomy": "HVAC.Heating",
        "measure_type": "ModelMeasure",
        "measure_uid": "28c79510-5001-4582-bf93-d34d223f19ca",
        "measure_version_id": "e7069360-caee-44aa-a190-04a7ec3c3761",
        "measure_version_modified": "20170320T192151Z",
        "measure_xml_checksum": "0DA5C9E6",
        "started_at": "20170329T223034Z",
        "stderr": "",
        "stdout": "[OpenStudio.Measure] <0> OSArgumentVector is deprecated, use OpenStudio::Measure::OSArgumentVector instead.\n",
        "step_errors": [],
        "step_files": [],
        "step_info": [
          "Run Measure set to 0."
        ],
        "step_result": "NA",
        "step_values": [
          {
            "name": "run_measure",
            "value": 0
          },
          {
            "name": "object",
            "value": "{ef611f95-658d-4609-9b31-7cfea756bfd5}"
          },
          {
            "name": "eff",
            "value": 0.8
          },
          {
            "name": "remove_costs",
            "value": false
          },
          {
            "name": "material_cost",
            "value": 0
          },
          {
            "name": "demolition_cost",
            "value": 0
          },
          {
            "name": "years_until_costs_start",
            "value": 0
          },
          {
            "name": "demo_cost_initial_const",
            "value": false
          },
          {
            "name": "expected_life",
            "value": 15
          },
          {
            "name": "om_cost",
            "value": 0
          },
          {
            "name": "om_frequency",
            "value": 1
          }
        ],
        "step_warnings": []
      }
    },
    {
      "arguments": {
        "base_eff": 1,
        "nom_cap": 1450,
        "run_measure": 0
      },
      "description": "Change Electric Baseboard",
      "measure_dir_name": "ChangeElectricBaseboardDiag",
      "name": "change_electric_baseboard_diag",
      "result": {
        "completed_at": "20170329T223034Z",
        "measure_class_name": "ChangeElectricBaseboardDiag",
        "measure_display_name": "Change Electric Baseboard",
        "measure_name": "change_electric_baseboard_diag",
        "measure_taxonomy": "Envelope.Form",
        "measure_type": "ModelMeasure",
        "measure_uid": "325cd385-bbaf-4f4f-adb2-8eb928c2de9d",
        "measure_version_id": "1835d0eb-f2d2-49d9-a828-558a919b9841",
        "measure_version_modified": "20170321T143325Z",
        "measure_xml_checksum": "45097B60",
        "started_at": "20170329T223034Z",
        "stderr": "",
        "stdout": "[OpenStudio.Measure] <0> OSArgumentVector is deprecated, use OpenStudio::Measure::OSArgumentVector instead.\n",
        "step_errors": [],
        "step_files": [],
        "step_info": [
          "Run Measure set to 0."
        ],
        "step_result": "NA",
        "step_values": [
          {
            "name": "run_measure",
            "value": 0
          },
          {
            "name": "base_eff",
            "value": 1
          },
          {
            "name": "nom_cap",
            "value": 1450
          }
        ],
        "step_warnings": []
      }
    },
    {
      "arguments": {
        "air_loops_detail_section": true,
        "annual_overview_section": true,
        "building_summary_section": true,
        "cost_summary_section": true,
        "envelope_section_section": true,
        "exterior_light_section": true,
        "hvac_load_profile": true,
        "interior_lighting_section": true,
        "monthly_overview_section": true,
        "outdoor_air_section": true,
        "plant_loops_detail_section": true,
        "plug_loads_section": true,
        "schedules_overview_section": true,
        "source_energy_section": true,
        "space_type_breakdown_section": true,
        "space_type_details_section": true,
        "utility_bills_rates_section": true,
        "water_use_section": true,
        "zone_condition_section": true,
        "zone_equipment_detail_section": true,
        "zone_summary_section": true
      },
      "description": "This measure creates high level tables and charts pulling both from model inputs and EnergyPlus results. It has building level information as well as detail on space types, thermal zones, HVAC systems, envelope characteristics, and economics. Click the heading above a chart to view a table of the chart data.",
      "measure_dir_name": "f8e23017-894d-4bdf-977f-37e3961e6f42",
      "name": "openstudio_results",
      "result": {
        "completed_at": "20170329T223054Z",
        "measure_class_name": "OpenStudioResults",
        "measure_display_name": "OpenStudio Results",
        "measure_name": "openstudio_results",
        "measure_taxonomy": "Reporting.QAQC",
        "measure_type": "ReportingMeasure",
        "measure_uid": "a25386cd-60e4-46bc-8b11-c755f379d916",
        "measure_version_id": "96d48c9c-dd58-4ace-b2b0-0a2b36fd603d",
        "measure_version_modified": "20170315T161128Z",
        "measure_xml_checksum": "557BF06F",
        "started_at": "20170329T223051Z",
        "stderr": "",
        "stdout": "[OpenStudio.Measure] <0> OSArgumentVector is deprecated, use OpenStudio::Measure::OSArgumentVector instead.\n",
        "step_errors": [],
        "step_files": [
          "/mnt/openstudio/analysis_3dd2cf2e-e053-4fae-ad69-be0126fa4fe8/data_point_5ff58d65-d1b8-4bff-a062-f313c06030f2/run/004_f8e23017-894d-4bdf-977f-37e3961e6f42/report.html"
        ],
        "step_final_condition": "Generated report with 21 sections to ./report.html.",
        "step_info": [],
        "step_initial_condition": "Gathering data from EnergyPlus SQL file and OSM model.",
        "step_result": "Success",
        "step_values": [
          {
            "name": "building_summary_section",
            "value": true
          },
          {
            "name": "annual_overview_section",
            "value": true
          },
          {
            "name": "monthly_overview_section",
            "value": true
          },
          {
            "name": "utility_bills_rates_section",
            "value": true
          },
          {
            "name": "envelope_section_section",
            "value": true
          },
          {
            "name": "space_type_breakdown_section",
            "value": true
          },
          {
            "name": "space_type_details_section",
            "value": true
          },
          {
            "name": "interior_lighting_section",
            "value": true
          },
          {
            "name": "plug_loads_section",
            "value": true
          },
          {
            "name": "exterior_light_section",
            "value": true
          },
          {
            "name": "water_use_section",
            "value": true
          },
          {
            "name": "hvac_load_profile",
            "value": true
          },
          {
            "name": "zone_condition_section",
            "value": true
          },
          {
            "name": "zone_summary_section",
            "value": true
          },
          {
            "name": "zone_equipment_detail_section",
            "value": true
          },
          {
            "name": "air_loops_detail_section",
            "value": true
          },
          {
            "name": "plant_loops_detail_section",
            "value": true
          },
          {
            "name": "outdoor_air_section",
            "value": true
          },
          {
            "name": "cost_summary_section",
            "value": true
          },
          {
            "name": "source_energy_section",
            "value": true
          },
          {
            "name": "schedules_overview_section",
            "value": true
          },
          {
            "display_name": "East entrance bldg v2",
            "name": "building_name",
            "value": "building_name"
          },
          {
            "name": "net_site_energy",
            "units": "kBtu",
            "value": 144551.58901898403
          },
          {
            "name": "total_building_area",
            "units": "ft^2",
            "value": 884.9010753577062
          },
          {
            "name": "eui",
            "units": "kBtu/ft^2",
            "value": 163.35338835536106
          },
          {
            "name": "unmet_hours_during_heating",
            "units": "hr",
            "value": 221
          },
          {
            "name": "unmet_hours_during_cooling",
            "units": "hr",
            "value": 0
          },
          {
            "name": "unmet_hours_during_occupied_heating",
            "units": "hr",
            "value": 221
          },
          {
            "name": "unmet_hours_during_occupied_cooling",
            "units": "hr",
            "value": 0
          },
          {
            "name": "unmet_hours_tolerance_heating",
            "units": "F",
            "value": 0.36
          },
          {
            "name": "unmet_hours_tolerance_cooling",
            "units": "F",
            "value": 0.36
          },
          {
            "name": "end_use_heating",
            "units": "kBtu",
            "value": 61608.112820365626
          },
          {
            "name": "end_use_cooling",
            "units": "kBtu",
            "value": 5250.906846535778
          },
          {
            "name": "end_use_interior_lighting",
            "units": "kBtu",
            "value": 22937.17431158228
          },
          {
            "name": "end_use_exterior_lighting",
            "units": "kBtu",
            "value": 0
          },
          {
            "name": "end_use_interior_equipment",
            "units": "kBtu",
            "value": 38016.94469576716
          },
          {
            "name": "end_use_exterior_equipment",
            "units": "kBtu",
            "value": 0
          },
          {
            "name": "end_use_fans",
            "units": "kBtu",
            "value": 13629.610190105503
          },
          {
            "name": "end_use_pumps",
            "units": "kBtu",
            "value": 47.39085601566587
          },
          {
            "name": "end_use_heat_rejection",
            "units": "kBtu",
            "value": 0
          },
          {
            "name": "end_use_humidification",
            "units": "kBtu",
            "value": 0
          },
          {
            "name": "end_use_heat_recovery",
            "units": "kBtu",
            "value": 0
          },
          {
            "name": "end_use_water_systems",
            "units": "kBtu",
            "value": 3070.927469815148
          },
          {
            "name": "end_use_refrigeration",
            "units": "kBtu",
            "value": 0
          },
          {
            "name": "end_use_generators",
            "units": "kBtu",
            "value": 0
          },
          {
            "name": "fuel_electricity",
            "units": "kBtu",
            "value": 84744.3287272137
          },
          {
            "name": "fuel_natural_gas",
            "units": "kBtu",
            "value": 59807.26029177032
          },
          {
            "name": "fuel_additional_fuel",
            "units": "kBtu",
            "value": 0
          },
          {
            "name": "fuel_district_cooling",
            "units": "kBtu",
            "value": 0
          },
          {
            "name": "fuel_district_heating",
            "units": "kBtu",
            "value": 0
          },
          {
            "name": "end_use_electricity_heating",
            "units": "kWh",
            "value": 527.7777777777777
          },
          {
            "name": "end_use_electricity_cooling",
            "units": "kWh",
            "value": 1538.888888888889
          },
          {
            "name": "end_use_electricity_interior_lighting",
            "units": "kWh",
            "value": 6722.222222222222
          },
          {
            "name": "end_use_electricity_exterior_lighting",
            "units": "kWh",
            "value": 0
          },
          {
            "name": "end_use_electricity_interior_equipment",
            "units": "kWh",
            "value": 11141.666666666666
          },
          {
            "name": "end_use_electricity_exterior_equipment",
            "units": "kWh",
            "value": 0
          },
          {
            "name": "end_use_electricity_fans",
            "units": "kWh",
            "value": 3994.444444444445
          },
          {
            "name": "end_use_electricity_pumps",
            "units": "kWh",
            "value": 13.88888888888889
          },
          {
            "name": "end_use_electricity_heat_rejection",
            "units": "kWh",
            "value": 0
          },
          {
            "name": "end_use_electricity_humidification",
            "units": "kWh",
            "value": 0
          },
          {
            "name": "end_use_electricity_heat_recovery",
            "units": "kWh",
            "value": 0
          },
          {
            "name": "end_use_electricity_water_systems",
            "units": "kWh",
            "value": 900
          },
          {
            "name": "end_use_electricity_refrigeration",
            "units": "kWh",
            "value": 0
          },
          {
            "name": "end_use_electricity_generators",
            "units": "kWh",
            "value": 0
          },
          {
            "name": "end_use_natural_gas_heating",
            "units": "therms",
            "value": 598.188
          },
          {
            "name": "end_use_natural_gas_cooling",
            "units": "therms",
            "value": 0
          },
          {
            "name": "end_use_natural_gas_interior_lighting",
            "units": "therms",
            "value": 0
          },
          {
            "name": "end_use_natural_gas_exterior_lighting",
            "units": "therms",
            "value": 0
          },
          {
            "name": "end_use_natural_gas_interior_equipment",
            "units": "therms",
            "value": 0
          },
          {
            "name": "end_use_natural_gas_exterior_equipment",
            "units": "therms",
            "value": 0
          },
          {
            "name": "end_use_natural_gas_fans",
            "units": "therms",
            "value": 0
          },
          {
            "name": "end_use_natural_gas_pumps",
            "units": "therms",
            "value": 0
          },
          {
            "name": "end_use_natural_gas_heat_rejection",
            "units": "therms",
            "value": 0
          },
          {
            "name": "end_use_natural_gas_humidification",
            "units": "therms",
            "value": 0
          },
          {
            "name": "end_use_natural_gas_heat_recovery",
            "units": "therms",
            "value": 0
          },
          {
            "name": "end_use_natural_gas_water_systems",
            "units": "therms",
            "value": 0
          },
          {
            "name": "end_use_natural_gas_refrigeration",
            "units": "therms",
            "value": 0
          },
          {
            "name": "end_use_natural_gas_generators",
            "units": "therms",
            "value": 0
          },
          {
            "name": "electricity_heating_ip",
            "units": "kWh",
            "value": 527.1467936694445
          },
          {
            "name": "electricity_cooling_ip",
            "units": "kWh",
            "value": 1538.0924524916666
          },
          {
            "name": "electricity_interior_lighting_ip",
            "units": "kWh",
            "value": 6722.963888888889
          },
          {
            "name": "electricity_exterior_lighting_ip",
            "units": "kWh",
            "value": 0
          },
          {
            "name": "electricity_interior_equipment_ip",
            "units": "kWh",
            "value": 11141.947222222223
          },
          {
            "name": "electricity_exterior_equipment_ip",
            "units": "kWh",
            "value": 0
          },
          {
            "name": "electricity_fans_ip",
            "units": "kWh",
            "value": 3994.0277777777783
          },
          {
            "name": "electricity_pumps_ip",
            "units": "kWh",
            "value": 12.596346341666663
          },
          {
            "name": "electricity_heat_rejection_ip",
            "units": "kWh",
            "value": 0
          },
          {
            "name": "electricity_humidification_ip",
            "units": "kWh",
            "value": 0
          },
          {
            "name": "electricity_heat_recovery_ip",
            "units": "kWh",
            "value": 0
          },
          {
            "name": "electricity_water_systems_ip",
            "units": "kWh",
            "value": 900.1780555555555
          },
          {
            "name": "electricity_refrigeration_ip",
            "units": "kWh",
            "value": 0
          },
          {
            "name": "electricity_generators_ip",
            "units": "kWh",
            "value": 0
          },
          {
            "name": "electricity_ip",
            "units": "kWh",
            "value": 24836.95253694722
          },
          {
            "name": "natural_gas_heating_ip",
            "units": "MBtu",
            "value": 59.8067631326496
          },
          {
            "name": "natural_gas_cooling_ip",
            "units": "MBtu",
            "value": 0
          },
          {
            "name": "natural_gas_interior_lighting_ip",
            "units": "MBtu",
            "value": 0
          },
          {
            "name": "natural_gas_exterior_lighting_ip",
            "units": "MBtu",
            "value": 0
          },
          {
            "name": "natural_gas_interior_equipment_ip",
            "units": "MBtu",
            "value": 0
          },
          {
            "name": "natural_gas_exterior_equipment_ip",
            "units": "MBtu",
            "value": 0
          },
          {
            "name": "natural_gas_fans_ip",
            "units": "MBtu",
            "value": 0
          },
          {
            "name": "natural_gas_pumps_ip",
            "units": "MBtu",
            "value": 0
          },
          {
            "name": "natural_gas_heat_rejection_ip",
            "units": "MBtu",
            "value": 0
          },
          {
            "name": "natural_gas_humidification_ip",
            "units": "MBtu",
            "value": 0
          },
          {
            "name": "natural_gas_heat_recovery_ip",
            "units": "MBtu",
            "value": 0
          },
          {
            "name": "natural_gas_water_systems_ip",
            "units": "MBtu",
            "value": 0
          },
          {
            "name": "natural_gas_refrigeration_ip",
            "units": "MBtu",
            "value": 0
          },
          {
            "name": "natural_gas_generators_ip",
            "units": "MBtu",
            "value": 0
          },
          {
            "name": "natural_gas_ip",
            "units": "MBtu",
            "value": 59.8067631326496
          },
          {
            "name": "additional_fuel_heating_ip",
            "units": "MBtu",
            "value": 0
          },
          {
            "name": "additional_fuel_cooling_ip",
            "units": "MBtu",
            "value": 0
          },
          {
            "name": "additional_fuel_interior_lighting_ip",
            "units": "MBtu",
            "value": 0
          },
          {
            "name": "additional_fuel_exterior_lighting_ip",
            "units": "MBtu",
            "value": 0
          },
          {
            "name": "additional_fuel_interior_equipment_ip",
            "units": "MBtu",
            "value": 0
          },
          {
            "name": "additional_fuel_exterior_equipment_ip",
            "units": "MBtu",
            "value": 0
          },
          {
            "name": "additional_fuel_fans_ip",
            "units": "MBtu",
            "value": 0
          },
          {
            "name": "additional_fuel_pumps_ip",
            "units": "MBtu",
            "value": 0
          },
          {
            "name": "additional_fuel_heat_rejection_ip",
            "units": "MBtu",
            "value": 0
          },
          {
            "name": "additional_fuel_humidification_ip",
            "units": "MBtu",
            "value": 0
          },
          {
            "name": "additional_fuel_heat_recovery_ip",
            "units": "MBtu",
            "value": 0
          },
          {
            "name": "additional_fuel_water_systems_ip",
            "units": "MBtu",
            "value": 0
          },
          {
            "name": "additional_fuel_refrigeration_ip",
            "units": "MBtu",
            "value": 0
          },
          {
            "name": "additional_fuel_generators_ip",
            "units": "MBtu",
            "value": 0
          },
          {
            "name": "additional_fuel_ip",
            "units": "MBtu",
            "value": 0
          },
          {
            "name": "district_cooling_heating_ip",
            "units": "MBtu",
            "value": 0
          },
          {
            "name": "district_cooling_cooling_ip",
            "units": "MBtu",
            "value": 0
          },
          {
            "name": "district_cooling_interior_lighting_ip",
            "units": "MBtu",
            "value": 0
          },
          {
            "name": "district_cooling_exterior_lighting_ip",
            "units": "MBtu",
            "value": 0
          },
          {
            "name": "district_cooling_interior_equipment_ip",
            "units": "MBtu",
            "value": 0
          },
          {
            "name": "district_cooling_exterior_equipment_ip",
            "units": "MBtu",
            "value": 0
          },
          {
            "name": "district_cooling_fans_ip",
            "units": "MBtu",
            "value": 0
          },
          {
            "name": "district_cooling_pumps_ip",
            "units": "MBtu",
            "value": 0
          },
          {
            "name": "district_cooling_heat_rejection_ip",
            "units": "MBtu",
            "value": 0
          },
          {
            "name": "district_cooling_humidification_ip",
            "units": "MBtu",
            "value": 0
          },
          {
            "name": "district_cooling_heat_recovery_ip",
            "units": "MBtu",
            "value": 0
          },
          {
            "name": "district_cooling_water_systems_ip",
            "units": "MBtu",
            "value": 0
          },
          {
            "name": "district_cooling_refrigeration_ip",
            "units": "MBtu",
            "value": 0
          },
          {
            "name": "district_cooling_generators_ip",
            "units": "MBtu",
            "value": 0
          },
          {
            "name": "district_cooling_ip",
            "units": "MBtu",
            "value": 0
          },
          {
            "name": "district_heating_heating_ip",
            "units": "MBtu",
            "value": 0
          },
          {
            "name": "district_heating_cooling_ip",
            "units": "MBtu",
            "value": 0
          },
          {
            "name": "district_heating_interior_lighting_ip",
            "units": "MBtu",
            "value": 0
          },
          {
            "name": "district_heating_exterior_lighting_ip",
            "units": "MBtu",
            "value": 0
          },
          {
            "name": "district_heating_interior_equipment_ip",
            "units": "MBtu",
            "value": 0
          },
          {
            "name": "district_heating_exterior_equipment_ip",
            "units": "MBtu",
            "value": 0
          },
          {
            "name": "district_heating_fans_ip",
            "units": "MBtu",
            "value": 0
          },
          {
            "name": "district_heating_pumps_ip",
            "units": "MBtu",
            "value": 0
          },
          {
            "name": "district_heating_heat_rejection_ip",
            "units": "MBtu",
            "value": 0
          },
          {
            "name": "district_heating_humidification_ip",
            "units": "MBtu",
            "value": 0
          },
          {
            "name": "district_heating_heat_recovery_ip",
            "units": "MBtu",
            "value": 0
          },
          {
            "name": "district_heating_water_systems_ip",
            "units": "MBtu",
            "value": 0
          },
          {
            "name": "district_heating_refrigeration_ip",
            "units": "MBtu",
            "value": 0
          },
          {
            "name": "district_heating_generators_ip",
            "units": "MBtu",
            "value": 0
          },
          {
            "name": "district_heating_ip",
            "units": "MBtu",
            "value": 0
          },
          {
            "name": "water_heating_ip",
            "units": "MBtu",
            "value": 0
          },
          {
            "name": "water_cooling_ip",
            "units": "MBtu",
            "value": 0
          },
          {
            "name": "water_interior_lighting_ip",
            "units": "MBtu",
            "value": 0
          },
          {
            "name": "water_exterior_lighting_ip",
            "units": "MBtu",
            "value": 0
          },
          {
            "name": "water_interior_equipment_ip",
            "units": "MBtu",
            "value": 0
          },
          {
            "name": "water_exterior_equipment_ip",
            "units": "MBtu",
            "value": 0
          },
          {
            "name": "water_fans_ip",
            "units": "MBtu",
            "value": 0
          },
          {
            "name": "water_pumps_ip",
            "units": "MBtu",
            "value": 0
          },
          {
            "name": "water_heat_rejection_ip",
            "units": "MBtu",
            "value": 0
          },
          {
            "name": "water_humidification_ip",
            "units": "MBtu",
            "value": 0
          },
          {
            "name": "water_heat_recovery_ip",
            "units": "MBtu",
            "value": 0
          },
          {
            "name": "water_water_systems_ip",
            "units": "MBtu",
            "value": 0
          },
          {
            "name": "water_refrigeration_ip",
            "units": "MBtu",
            "value": 0
          },
          {
            "name": "water_generators_ip",
            "units": "MBtu",
            "value": 0
          },
          {
            "name": "water_ip",
            "units": "MBtu",
            "value": 0
          },
          {
            "name": "exterior_roof",
            "units": "ft^2",
            "value": 884.8935977289597
          },
          {
            "name": "exterior_wall",
            "units": "ft^2",
            "value": 1361.666484197408
          },
          {
            "name": "_3_0_x_3_0_double_pane_alum_construction",
            "units": "ft^2",
            "value": 198.00000000000037
          },
          {
            "name": "gross_window_wall_ratio",
            "units": "%",
            "value": 12.7
          },
          {
            "name": "gross_window_wall_ratio_conditioned",
            "units": "%",
            "value": 15
          },
          {
            "name": "skylight_roof_ratio",
            "units": "%",
            "value": 0
          },
          {
            "name": "space_type_entry_way",
            "units": "ft^2",
            "value": 134.02431004174898
          },
          {
            "name": "space_type_open_area",
            "units": "ft^2",
            "value": 383.76965692882305
          },
          {
            "name": "space_type_small_office",
            "units": "ft^2",
            "value": 190.16681007129264
          },
          {
            "name": "space_type_utility",
            "units": "ft^2",
            "value": 176.93282068709485
          },
          {
            "name": "exterior_lighting_total_power",
            "units": "W",
            "value": 0
          },
          {
            "name": "exterior_lighting_total_consumption",
            "units": "kWh",
            "value": 42363.88888888889
          },
          {
            "name": "utility_1_water_fixture_1",
            "units": "gal/min",
            "value": 0.2666376581822811
          },
          {
            "name": "utility_1_water_fixture_2",
            "units": "gal/min",
            "value": 0.2777769130568054
          },
          {
            "name": "inflation_approach",
            "value": "Constant Dollar"
          },
          {
            "name": "analysis_length",
            "units": "yrs",
            "value": 25
          },
          {
            "name": "annual_peak_electric_demand",
            "units": "kW",
            "value": 7.0899
          },
          {
            "name": "first_year_capital_cost",
            "units": "$",
            "value": 0
          },
          {
            "name": "annual_utility_cost",
            "units": "$",
            "value": 0
          },
          {
            "name": "total_lifecycle_cost",
            "units": "$",
            "value": 0
          }
        ],
        "step_warnings": []
      }
    },
    {
      "arguments": {
        "electric_cvrmse_limit": 15,
        "electric_nmbe_limit": 5,
        "gas_cvrmse_limit": 15,
        "gas_nmbe_limit": 5
      },
      "description": "This measure is intended for calibibration of modeled results against user entered utility bill.",
      "measure_dir_name": "CalibrationReportsEnhanced20",
      "name": "calibration_reports_enhanced_20",
      "result": {
        "completed_at": "20170329T223055Z",
        "measure_class_name": "CalibrationReportsEnhanced20",
        "measure_display_name": "Calibration Reports Enhanced",
        "measure_name": "calibration_reports_enhanced_20",
        "measure_taxonomy": "Reporting.QAQC",
        "measure_type": "ReportingMeasure",
        "measure_uid": "e6642d40-7366-4647-8724-53a37991d668",
        "measure_version_id": "ceb75240-70f0-4129-9caa-1195bbb0f07d",
        "measure_version_modified": "20170320T192149Z",
        "measure_xml_checksum": "2C8A3EEF",
        "started_at": "20170329T223055Z",
        "stderr": "",
        "stdout": "[OpenStudio.Measure] <0> OSArgumentVector is deprecated, use OpenStudio::Measure::OSArgumentVector instead.\n[OpenStudio] <0> getSharedResourcesPath is deprecated.\n",
        "step_errors": [],
        "step_files": [
          "/mnt/openstudio/analysis_3dd2cf2e-e053-4fae-ad69-be0126fa4fe8/data_point_5ff58d65-d1b8-4bff-a062-f313c06030f2/run/005_CalibrationReportsEnhanced20/report.html",
          "/mnt/openstudio/analysis_3dd2cf2e-e053-4fae-ad69-be0126fa4fe8/data_point_5ff58d65-d1b8-4bff-a062-f313c06030f2/run/005_CalibrationReportsEnhanced20/guideline.json"
        ],
        "step_final_condition": "Calibration Report generated successfully.",
        "step_info": [],
        "step_result": "Success",
        "step_values": [
          {
            "name": "electric_nmbe_limit",
            "value": 5
          },
          {
            "name": "electric_cvrmse_limit",
            "value": 15
          },
          {
            "name": "gas_nmbe_limit",
            "value": 5
          },
          {
            "name": "gas_cvrmse_limit",
            "value": 15
          },
          {
            "name": "ashrae_max_nmbe",
            "units": "%",
            "value": 5
          },
          {
            "name": "ashrae_max_cvrmse",
            "units": "%",
            "value": 15
          },
          {
            "name": "femp_max_nmbe",
            "units": "%",
            "value": 15
          },
          {
            "name": "femp_max_cvrmse",
            "units": "%",
            "value": 10
          },
          {
            "name": "electricity_consumption_cvrmse",
            "units": "%",
            "value": 37.09784758879237
          },
          {
            "name": "electricity_consumption_nmbe",
            "units": "%",
            "value": -37.93592111074167
          },
          {
            "name": "electricity_period_1_start_date",
            "value": "2013-Jan-01"
          },
          {
            "name": "electricity_period_1_end_date",
            "value": "2013-Jan-30"
          },
          {
            "name": "electricity_period_1_consumption_actual",
            "units": "kWh",
            "value": 1562
          },
          {
            "name": "electricity_period_1_consumption_modeled",
            "units": "kWh",
            "value": 2026.8560241724572
          },
          {
            "name": "electricity_period_1_peak_demand_modeled",
            "units": "kW",
            "value": 6.564031925140484
          },
          {
            "name": "electricity_period_1_consumption_nmbe",
            "units": "%",
            "value": 29.760308845867936
          },
          {
            "name": "electricity_period_2_start_date",
            "value": "2013-Feb-01"
          },
          {
            "name": "electricity_period_2_end_date",
            "value": "2013-Feb-28"
          },
          {
            "name": "electricity_period_2_consumption_actual",
            "units": "kWh",
            "value": 1395
          },
          {
            "name": "electricity_period_2_consumption_modeled",
            "units": "kWh",
            "value": 1789.6524026092995
          },
          {
            "name": "electricity_period_2_peak_demand_modeled",
            "units": "kW",
            "value": 4.954424727324561
          },
          {
            "name": "electricity_period_2_consumption_nmbe",
            "units": "%",
            "value": 28.290494810702477
          },
          {
            "name": "electricity_period_3_start_date",
            "value": "2013-Mar-01"
          },
          {
            "name": "electricity_period_3_end_date",
            "value": "2013-Mar-31"
          },
          {
            "name": "electricity_period_3_consumption_actual",
            "units": "kWh",
            "value": 1279
          },
          {
            "name": "electricity_period_3_consumption_modeled",
            "units": "kWh",
            "value": 1965.955531546161
          },
          {
            "name": "electricity_period_3_peak_demand_modeled",
            "units": "kW",
            "value": 5.510897304820807
          },
          {
            "name": "electricity_period_3_consumption_nmbe",
            "units": "%",
            "value": 53.71036212245199
          },
          {
            "name": "electricity_period_4_start_date",
            "value": "2013-Apr-01"
          },
          {
            "name": "electricity_period_4_end_date",
            "value": "2013-Apr-30"
          },
          {
            "name": "electricity_period_4_consumption_actual",
            "units": "kWh",
            "value": 1347
          },
          {
            "name": "electricity_period_4_consumption_modeled",
            "units": "kWh",
            "value": 1943.7042553450199
          },
          {
            "name": "electricity_period_4_peak_demand_modeled",
            "units": "kW",
            "value": 5.7138082446932685
          },
          {
            "name": "electricity_period_4_consumption_nmbe",
            "units": "%",
            "value": 44.29875689272605
          },
          {
            "name": "electricity_period_5_start_date",
            "value": "2013-May-01"
          },
          {
            "name": "electricity_period_5_end_date",
            "value": "2013-May-31"
          },
          {
            "name": "electricity_period_5_consumption_actual",
            "units": "kWh",
            "value": 1363
          },
          {
            "name": "electricity_period_5_consumption_modeled",
            "units": "kWh",
            "value": 2062.442734919651
          },
          {
            "name": "electricity_period_5_peak_demand_modeled",
            "units": "kW",
            "value": 6.285579309091033
          },
          {
            "name": "electricity_period_5_consumption_nmbe",
            "units": "%",
            "value": 51.316414887722
          },
          {
            "name": "electricity_period_6_start_date",
            "value": "2013-Jun-01"
          },
          {
            "name": "electricity_period_6_end_date",
            "value": "2013-Jun-30"
          },
          {
            "name": "electricity_period_6_consumption_actual",
            "units": "kWh",
            "value": 1691
          },
          {
            "name": "electricity_period_6_consumption_modeled",
            "units": "kWh",
            "value": 2183.1069030969566
          },
          {
            "name": "electricity_period_6_peak_demand_modeled",
            "units": "kW",
            "value": 6.984571574583269
          },
          {
            "name": "electricity_period_6_consumption_nmbe",
            "units": "%",
            "value": 29.10153182122747
          },
          {
            "name": "electricity_period_7_start_date",
            "value": "2013-Jul-01"
          },
          {
            "name": "electricity_period_7_end_date",
            "value": "2013-Jul-31"
          },
          {
            "name": "electricity_period_7_consumption_actual",
            "units": "kWh",
            "value": 1852
          },
          {
            "name": "electricity_period_7_consumption_modeled",
            "units": "kWh",
            "value": 2350.4924953869877
          },
          {
            "name": "electricity_period_7_peak_demand_modeled",
            "units": "kW",
            "value": 7.089900611583672
          },
          {
            "name": "electricity_period_7_consumption_nmbe",
            "units": "%",
            "value": 26.91644143558249
          },
          {
            "name": "electricity_period_8_start_date",
            "value": "2013-Aug-01"
          },
          {
            "name": "electricity_period_8_end_date",
            "value": "2013-Aug-31"
          },
          {
            "name": "electricity_period_8_consumption_actual",
            "units": "kWh",
            "value": 1983
          },
          {
            "name": "electricity_period_8_consumption_modeled",
            "units": "kWh",
            "value": 2324.699329225914
          },
          {
            "name": "electricity_period_8_peak_demand_modeled",
            "units": "kW",
            "value": 6.930548786748706
          },
          {
            "name": "electricity_period_8_consumption_nmbe",
            "units": "%",
            "value": 17.23143364729773
          },
          {
            "name": "electricity_period_9_start_date",
            "value": "2013-Sep-01"
          },
          {
            "name": "electricity_period_9_end_date",
            "value": "2013-Sep-30"
          },
          {
            "name": "electricity_period_9_consumption_actual",
            "units": "kWh",
            "value": 1650
          },
          {
            "name": "electricity_period_9_consumption_modeled",
            "units": "kWh",
            "value": 2076.12060406766
          },
          {
            "name": "electricity_period_9_peak_demand_modeled",
            "units": "kW",
            "value": 6.820685686701539
          },
          {
            "name": "electricity_period_9_consumption_nmbe",
            "units": "%",
            "value": 25.825491155615772
          },
          {
            "name": "electricity_period_10_start_date",
            "value": "2013-Oct-01"
          },
          {
            "name": "electricity_period_10_end_date",
            "value": "2013-Oct-31"
          },
          {
            "name": "electricity_period_10_consumption_actual",
            "units": "kWh",
            "value": 1385
          },
          {
            "name": "electricity_period_10_consumption_modeled",
            "units": "kWh",
            "value": 1981.8961465962973
          },
          {
            "name": "electricity_period_10_peak_demand_modeled",
            "units": "kW",
            "value": 5.7385307124193385
          },
          {
            "name": "electricity_period_10_consumption_nmbe",
            "units": "%",
            "value": 43.09719470009367
          },
          {
            "name": "electricity_period_11_start_date",
            "value": "2013-Nov-01"
          },
          {
            "name": "electricity_period_11_end_date",
            "value": "2013-Nov-30"
          },
          {
            "name": "electricity_period_11_consumption_actual",
            "units": "kWh",
            "value": 1347
          },
          {
            "name": "electricity_period_11_consumption_modeled",
            "units": "kWh",
            "value": 1893.9368065673743
          },
          {
            "name": "electricity_period_11_peak_demand_modeled",
            "units": "kW",
            "value": 5.270559541309215
          },
          {
            "name": "electricity_period_11_consumption_nmbe",
            "units": "%",
            "value": 40.60406878748139
          },
          {
            "name": "electricity_period_12_start_date",
            "value": "2013-Dec-01"
          },
          {
            "name": "electricity_period_12_end_date",
            "value": "2013-Dec-31"
          },
          {
            "name": "electricity_period_12_consumption_actual",
            "units": "kWh",
            "value": 1524
          },
          {
            "name": "electricity_period_12_consumption_modeled",
            "units": "kWh",
            "value": 2170.011716387318
          },
          {
            "name": "electricity_period_12_peak_demand_modeled",
            "units": "kW",
            "value": 6.564108043337441
          },
          {
            "name": "electricity_period_12_consumption_nmbe",
            "units": "%",
            "value": 42.38922023538831
          },
          {
            "name": "electricity_consumption_actual",
            "units": "kWh",
            "value": 18378
          },
          {
            "name": "electricity_consumption_modeled",
            "units": "kWh",
            "value": 24768.874949921094
          },
          {
            "name": "electricity_sum_of_squares",
            "units": "kWh",
            "value": 3550782.842941886
          },
          {
            "name": "electricity_dof",
            "value": 12
          },
          {
            "name": "electricity_rmse",
            "units": "kWh^0.5",
            "value": 543.9655965639345
          },
          {
            "name": "total_sum_of_squares",
            "units": "kBtu",
            "value": 46018145415221210000
          },
          {
            "name": "total_dof",
            "value": 12
          },
          {
            "name": "total_rmse",
            "units": "kBtu^0.5",
            "value": 1958276142.7511785
          },
          {
            "name": "electricity_cvrmse_within_limit",
            "value": 0
          },
          {
            "name": "electricity_nmbe_within_limit",
            "value": 0
          }
        ],
        "step_warnings": []
      }
    }
  ],
  "updated_at": "20170329T223057Z",
  "weather_file": "SRRL_2013AMY_60min.epw"
}